Version 4
SHEET 1 936 680
WIRE -368 112 -368 64
WIRE -192 112 -368 112
WIRE 288 112 288 80
WIRE 112 128 0 128
WIRE 256 128 192 128
WIRE -192 144 -192 112
WIRE 400 144 320 144
WIRE 0 160 0 128
WIRE 112 160 112 128
WIRE 256 160 112 160
WIRE 288 208 288 176
WIRE -368 224 -368 112
WIRE -192 256 -192 224
WIRE -192 256 -256 256
WIRE 0 272 0 240
WIRE -256 288 -256 256
WIRE -192 304 -192 256
WIRE 192 320 192 128
WIRE 272 320 192 320
WIRE 400 320 400 144
WIRE 400 320 352 320
WIRE 192 336 192 320
WIRE -368 416 -368 304
WIRE -192 416 -192 384
WIRE -192 416 -368 416
WIRE 192 432 192 416
WIRE -368 464 -368 416
FLAG -256 288 0
FLAG -368 64 vcc
FLAG -368 464 vee
FLAG 288 80 vcc
FLAG 288 208 vee
FLAG 192 432 0
FLAG 0 272 0
SYMBOL OpAmps/OP07 288 80 R0
SYMATTR InstName U1
SYMBOL voltage -368 208 R0
SYMATTR InstName V1
SYMATTR Value 9
SYMBOL res -208 128 R0
SYMATTR InstName R1
SYMATTR Value 10k
SYMBOL res -208 288 R0
SYMATTR InstName R2
SYMATTR Value 10k
SYMBOL res 176 320 R0
SYMATTR InstName R4
SYMATTR Value 10k
SYMBOL res 368 304 R90
WINDOW 0 0 56 VBottom 2
WINDOW 3 32 56 VTop 2
SYMATTR InstName R5
SYMATTR Value 10k
SYMBOL Misc/signal 0 144 R0
SYMATTR InstName V2
TEXT 296 496 Left 2 !.tran 10m
TEXT 296 376 Left 2 ;Potentiometer
